2024_89_CemigReconfigurationCases/1_AlimsCemig/COJ09/COJ09SegmentosMT.dss
new line.TR12110957 bus1=BMT171813583.3,bus2=BMT171813585.3,Phases=1,Linecode=CAB103_3_1,Length=0.022481000,Units=km
new line.TR12145986 bus1=BMT171814677.1,bus2=BMT8741824B.1,Phases=1,Linecode=CAB202_3_1,Length=0.045137000,Units=km
new line.TR12145987 bus1=BMT2146969B.1,bus2=BMT8741824B.1,Phases=1,Linecode=CAB202_3_1,Length=0.048524000,Units=km
new line.TR12146649 bus1=BMT171813545.2,bus2=BMT171813546.2,Phases=1,Linecode=CAB103_3_1,Length=0.050139000,Units=km
new line.TR12146650 bus1=BMT171813546.2,bus2=BMT171813547.2,Phases=1,Linecode=CAB202_3_1,Length=0.094740000,Units=km
new line.TR12146651 bus1=BMT171813547.2,bus2=BMT171813548.2,Phases=1,Linecode=CAB202_3_1,Length=0.093977000,Units=km
new line.TR12181715 bus1=BMT171813207.1.2.3,bus2=BMT8780734B.1.2.3,Phases=3,Linecode=CABA06_3_3,Length=0.005002000,Units=km
new line.TR12181716 bus1=BMT8780734B.1.2.3,bus2=BMT7948961B.1.2.3,Phases=3,Linecode=CABA06_3_3,Length=0.032539000,Units=km
new line.TR12181717 bus1=BMT7948961B.1.2.3,bus2=BMT8424030B.1.2.3,Phases=3,Linecode=CABA06_3_3,Length=0.036810000,Units=km
new line.TR12181718 bus1=BMT8424030B.1.2.3,bus2=BMT8424037B.1.2.3,Phases=3,Linecode=CABA06_3_3,Length=0.036810000,Units=km
new line.TR12181719 bus1=BMT8424037B.1.2.3,bus2=BMT8424044B.1.2.3,Phases=3,Linecode=CABA06_3_3,Length=0.036783000,Units=km
new line.TR12181720 bus1=BMT8424044B.1.2.3,bus2=BMT8780767B.1.2.3,Phases=3,Linecode=CABA06_3_3,Length=0.038223000,Units=km
new line.TR12181721 bus1=BMT8780767B.1.2.3,bus2=BMT8780739B.1.2.3,Phases=3,Linecode=CABA06_3_3,Length=0.034668000,Units=km
new line.TR12181722 bus1=BMT8780739B.1.2.3,bus2=BMT171813208.1.2.3,Phases=3,Linecode=CABA06_3_3,Length=0.029079000,Units=km
new line.TR12181723 bus1=BMT171813208.1.2.3,bus2=BMT171813209.1.2.3,Phases=3,Linecode=CABA06_3_3,Length=0.027010000,Units=km
new line.TR12181724 bus1=BMT171813208.1.2.3,bus2=BMT8780764B.1.2.3,Phases=3,Linecode=CABA06_3_3,Length=0.027669000,Units=km
new line.TR12181725 bus1=BMT8780764B.1.2.3,bus2=BMT8780763B.1.2.3,Phases=3,Linecode=CABA06_3_3,Length=0.024092000,Units=km
new line.TR12181726 bus1=BMT8780763B.1.2.3,bus2=BMT8780742B.1.2.3,Phases=3,Linecode=CABA06_3_3,Length=0.025465000,Units=km
new line.TR12181727 bus1=BMT8780742B.1.2.3,bus2=BMT171813210.1.2.3,Phases=3,Linecode=CABA06_3_3,Length=0.029079000,Units=km
new line.TR12221748 bus1=BMT171816002.3,bus2=BMT8822374B.3,Phases=1,Linecode=CAB202_3_1,Length=0.048389000,Units=km
new line.TR12221749 bus1=BMT8822374B.3,bus2=BMT171816004.3,Phases=1,Linecode=CAB202_3_1,Length=0.032260000,Units=km
new line.TR12259288 bus1=BMT171863067.2,bus2=BMT4491500B.2,Phases=1,Linecode=CAB202_3_1,Length=0.139576000,Units=km
new line.TR12259294 bus1=BMT171863067.2,bus2=BMT171863069.2,Phases=1,Linecode=CAB202_3_1,Length=0.038288000,Units=km
new line.TR12259295 bus1=BMT171863067.2,bus2=BMT171863070.2,Phases=1,Linecode=CAB202_3_1,Length=0.141594000,Units=km
new line.TR12259300 bus1=BMT171863068.2,bus2=BMT171863072.2,Phases=1,Linecode=CAB202_3_1,Length=0.011406000,Units=km
new line.TR12259317 bus1=BMT4491500B.2,bus2=BMT8861663B.2,Phases=1,Linecode=CAB202_3_1,Length=0.062052000,Units=km
new line.TR12259318 bus1=BMT8861663B.2,bus2=BMT171863068.2,Phases=1,Linecode=CAB202_3_1,Length=0.038639000,Units=km
new line.TR12259391 bus1=BMT171815454.2,bus2=BMT171815455.2,Phases=1,Linecode=CAB202_3_1,Length=0.051007000,Units=km
new line.TR12259392 bus1=BMT171863046.2,bus2=BMT171863047.2,Phases=1,Linecode=CAB202_3_1,Length=0.060053000,Units=km
new line.TR12259393 bus1=BMT171863047.2,bus2=BMT8861673B.2,Phases=1,Linecode=CAB202_3_1,Length=0.088170000,Units=km
new line.TR12259394 bus1=BMT8861673B.2,bus2=BMT171863048.2,Phases=1,Linecode=CAB202_3_1,Length=0.240245000,Units=km
new line.TR12259395 bus1=BMT171863048.2,bus2=BMT171863050.2,Phases=1,Linecode=CAB202_3_1,Length=0.095738000,Units=km
new line.TR12259396 bus1=BMT171863050.2,bus2=BMT8861678B.2,Phases=1,Linecode=CAB202_3_1,Length=0.111341000,Units=km
new line.TR12259397 bus1=BMT8861678B.2,bus2=BMT171863052.2,Phases=1,Linecode=CAB202_3_1,Length=0.063723000,Units=km
new line.TR12259398 bus1=BMT171863052.2,bus2=BMT8861685B.2,Phases=1,Linecode=CAB202_3_1,Length=0.068271000,Units=km
new line.TR12259399 bus1=BMT8861685B.2,bus2=BMT171863054.2,Phases=1,Linecode=CAB202_3_1,Length=0.067490000,Units=km
new line.TR12259436 bus1=BMT171863058.2,bus2=BMT171863060.2,Phases=1,Linecode=CAB202_3_1,Length=0.066512000,Units=km
new line.TR12259437 bus1=BMT171863060.2,bus2=BMT8861698B.2,Phases=1,Linecode=CAB202_3_1,Length=0.061542000,Units=km
new line.TR12259438 bus1=BMT8861698B.2,bus2=BMT171863062.2,Phases=1,Linecode=CAB202_3_1,Length=0.078339000,Units=km
new line.TR12259439 bus1=BMT171863062.2,bus2=BMT171863064.2,Phases=1,Linecode=CAB202_3_1,Length=0.137364000,Units=km
new line.TR12259444 bus1=BMT171863047.2,bus2=BMT171863049.2,Phases=1,Linecode=CAB202_3_1,Length=0.026086000,Units=km
new line.TR12259456 bus1=BMT171863048.2,bus2=BMT171863051.2,Phases=1,Linecode=CAB202_3_1,Length=0.031075000,Units=km
new line.TR12259461 bus1=BMT171863050.2,bus2=BMT171863053.2,Phases=1,Linecode=CAB202_3_1,Length=0.040324000,Units=km
new line.TR12259474 bus1=BMT171863052.2,bus2=BMT171863055.2,Phases=1,Linecode=CAB202_3_1,Length=0.051805000,Units=km
new line.TR12259478 bus1=BMT171863054.2,bus2=BMT171863056.2,Phases=1,Linecode=CAB202_3_1,Length=0.047026000,Units=km
new line.TR12259483 bus1=BMT171863054.2,bus2=BMT171863057.2,Phases=1,Linecode=CAB202_3_1,Length=0.044422000,Units=km
new line.TR12259484 bus1=BMT171863058.2,bus2=BMT171863057.2,Phases=1,Linecode=CAB202_3_1,Length=0.092809000,Units=km
new line.TR12259486 bus1=BMT171863057.2,bus2=BMT171863059.2,Phases=1,Linecode=CAB202_3_1,Length=0.133264000,Units=km
new line.TR12259487 bus1=BMT171863058.2,bus2=BMT171863061.2,Phases=1,Linecode=CAB202_3_1,Length=0.022569000,Units=km
new line.TR12259488 bus1=BMT171863060.2,bus2=BMT171863063.2,Phases=1,Linecode=CAB202_3_1,Length=0.061224000,Units=km
new line.TR12259490 bus1=BMT171863062.2,bus2=BMT171863065.2,Phases=1,Linecode=CAB202_3_1,Length=0.050652000,Units=km
new line.TR12259497 bus1=BMT171815437.3,bus2=BMT171815438.3,Phases=1,Linecode=CAB202_3_1,Length=0.107946000,Units=km
new line.TR12259498 bus1=BMT171815438.3,bus2=BMT171815439.3,Phases=1,Linecode=CAB202_3_1,Length=0.074354000,Units=km
new line.TR12259499 bus1=BMT171815438.3,bus2=BMT171815440.3,Phases=1,Linecode=CAB202_3_1,Length=0.122615000,Units=km
new line.TR12296683 bus1=BMT171815857.1,bus2=BMT171815859.1,Phases=1,Linecode=CAB202_3_1,Length=0.071893000,Units=km
new line.TR12174856 bus1=BMT171813931.1,bus2=BMT8773518B.1,Phases=1,Linecode=CAB202_3_1,Length=0.060848000,Units=km
new line.TR12174865 bus1=BMT8773518B.1,bus2=BMT8773522B.1,Phases=1,Linecode=CAB202_3_1,Length=0.101277000,Units=km
new line.TR12174870 bus1=BMT8773522B.1,bus2=BMT8773529B.1,Phases=1,Linecode=CAB202_3_1,Length=0.111649000,Units=km
new line.TR12174871 bus1=BMT8773529B.1,bus2=BMT8773533B.1,Phases=1,Linecode=CAB202_3_1,Length=0.094144000,Units=km
new line.TR12174873 bus1=BMT8773533B.1,bus2=BMT171813932.1,Phases=1,Linecode=CAB202_3_1,Length=0.101173000,Units=km
new line.TR12218632 bus1=BMT172587000.3,bus2=BMT172587001.3,Phases=1,Linecode=CAB202_3_1,Length=0.095622000,Units=km
new line.TR12218633 bus1=BMT172587001.3,bus2=BMT172587002.3,Phases=1,Linecode=CAB202_3_1,Length=0.053170000,Units=km
new line.TR12218637 bus1=BMT172587001.3,bus2=BMT172587003.3,Phases=1,Linecode=CAB202_3_1,Length=0.217667000,Units=km
new line.TR12252524 bus1=BMT5955067B.3,bus2=BMT172586985.3,Phases=1,Linecode=CAB202_3_1,Length=0.058279000,Units=km
new line.TR12252525 bus1=BMT5955074B.3,bus2=BMT172586985.3,Phases=1,Linecode=CAB202_3_1,Length=0.065323000,Units=km
new line.TR12252533 bus1=BMT172586985.3,bus2=BMT172586987.3,Phases=1,Linecode=CAB202_3_1,Length=0.112491000,Units=km
new line.TR12334239 bus1=BMT171813040.3,bus2=BMT8936464B.3,Phases=1,Linecode=CAB202_3_1,Length=0.104787000,Units=km
new line.TR12334247 bus1=BMT8936464B.3,bus2=BMT171813041.3,Phases=1,Linecode=CAB202_3_1,Length=0.082417000,Units=km
new line.TR12334253 bus1=BMT171813041.3,bus2=BMT171813042.3,Phases=1,Linecode=CAB202_3_1,Length=0.085737000,Units=km
new line.TR12337120 bus1=BMT171813603.2,bus2=BMT171813605.2,Phases=1,Linecode=CAB202_3_1,Length=0.016162000,Units=km
new line.TR12337138 bus1=BMT171813609.2,bus2=BMT171813612.2,Phases=1,Linecode=CAB202_3_1,Length=0.015530000,Units=km
new line.TR12337163 bus1=BMT171813613.2,bus2=BMT171813615.2,Phases=1,Linecode=CAB202_3_1,Length=0.018981000,Units=km
new line.TR12337239 bus1=BMT171813713.2,bus2=BMT171813714.2,Phases=1,Linecode=CAB202_3_1,Length=0.199955000,Units=km
new line.TR12337260 bus1=BMT171813714.2,bus2=BMT171813715.2,Phases=1,Linecode=CAB202_3_1,Length=0.047525000,Units=km
new line.TR12337271 bus1=BMT171813714.2,bus2=BMT8939413B.2,Phases=1,Linecode=CAB202_3_1,Length=0.124785000,Units=km
new line.TR12337272 bus1=BMT8939413B.2,bus2=BMT8939414B.2,Phases=1,Linecode=CAB202_3_1,Length=0.117520000,Units=km
new line.TR12337273 bus1=BMT8939414B.2,bus2=BMT171813716.2,Phases=1,Linecode=CAB202_3_1,Length=0.162447000,Units=km
new line.TR12337274 bus1=BMT171813716.2,bus2=BMT8939423B.2,Phases=1,Linecode=CAB202_3_1,Length=0.126869000,Units=km
new line.TR12337275 bus1=BMT8939423B.2,bus2=BMT8939434B.2,Phases=1,Linecode=CAB202_3_1,Length=0.101250000,Units=km
new line.TR12337276 bus1=BMT8939434B.2,bus2=BMT171813717.2,Phases=1,Linecode=CAB202_3_1,Length=0.164462000,Units=km
new line.TR12337277 bus1=BMT171813717.2,bus2=BMT171813719.2,Phases=1,Linecode=CAB202_3_1,Length=0.114781000,Units=km
new line.TR12337283 bus1=BMT171813716.2,bus2=BMT171813718.2,Phases=1,Linecode=CAB202_3_1,Length=0.023031000,Units=km
new line.TR12337759 bus1=BMT171813717.2,bus2=BMT171813720.2,Phases=1,Linecode=CAB202_3_1,Length=0.147922000,Units=km
new line.TR12409620 bus1=BMT159276933.3,bus2=BMT159276935.3,Phases=1,Linecode=CAB202_3_1,Length=0.111909000,Units=km
new line.TR12409621 bus1=BMT159276935.3,bus2=BMT159276936.3,Phases=1,Linecode=CAB202_3_1,Length=0.050023000,Units=km
new line.TR12409622 bus1=BMT159276935.3,bus2=BMT159276937.3,Phases=1,Linecode=CAB202_3_1,Length=0.097745000,Units=km
new line.TR12409759 bus1=BMT171814745.1,bus2=BMT9016242B.1,Phases=1,Linecode=CAB202_3_1,Length=0.097161000,Units=km
new line.TR12409760 bus1=BMT9016242B.1,bus2=BMT9016243B.1,Phases=1,Linecode=CAB202_3_1,Length=0.103155000,Units=km
new line.TR12409761 bus1=BMT9016243B.1,bus2=BMT9016244B.1,Phases=1,Linecode=CAB202_3_1,Length=0.132180000,Units=km
new line.TR12409762 bus1=BMT9016244B.1,bus2=BMT9016245B.1,Phases=1,Linecode=CAB202_3_1,Length=0.097787000,Units=km
new line.TR12409763 bus1=BMT9016245B.1,bus2=BMT9016246B.1,Phases=1,Linecode=CAB202_3_1,Length=0.215665000,Units=km
new line.TR12409764 bus1=BMT9016246B.1,bus2=BMT171814746.1,Phases=1,Linecode=CAB202_3_1,Length=0.102078000,Units=km
new line.TR12412122 bus1=BMT171812976.3,bus2=BMT171812978.3,Phases=1,Linecode=CAB202_3_1,Length=0.120543000,Units=km
new line.TR12412123 bus1=BMT171812978.3,bus2=BMT171812979.3,Phases=1,Linecode=CAB202_3_1,Length=0.022098000,Units=km
new line.TR12412130 bus1=BMT171812978.3,bus2=BMT171812980.3,Phases=1,Linecode=CAB202_3_1,Length=0.065787000,Units=km
new line.TR12446283 bus1=BMT171814378.3,bus2=BMT9054219B.3,Phases=1,Linecode=CAB103_3_1,Length=0.040326000,Units=km
new line.TR12446284 bus1=BMT9054219B.3,bus2=BMT171814379.3,Phases=1,Linecode=CAB103_3_1,Length=0.047027000,Units=km
new line.TR12446292 bus1=BMT8646532B.1.2.3,bus2=BMT8646546B.1.2.3,Phases=3,Linecode=CABA06_3_3,Length=0.032768000,Units=km
new line.TR12446293 bus1=BMT8646546B.1.2.3,bus2=BMT8646553B.1.2.3,Phases=3,Linecode=CABA06_3_3,Length=0.034998000,Units=km
new line.TR12446294 bus1=BMT8646553B.1.2.3,bus2=BMT171814367.1.2.3,Phases=3,Linecode=CABA06_3_3,Length=0.033298000,Units=km
new line.TR12446410 bus1=BMT171814389.1.2.3,bus2=BMT9054351B.1.2.3,Phases=3,Linecode=CABA06_3_3,Length=0.005387000,Units=km
new line.TR12446417 bus1=BMT9054351B.1.2.3,bus2=BMT9054353B.1.2.3,Phases=3,Linecode=CABA06_3_3,Length=0.029217000,Units=km
new line.TR12446420 bus1=BMT9054353B.1.2.3,bus2=BMT9054354B.1.2.3,Phases=3,Linecode=CABA06_3_3,Length=0.029217000,Units=km
new line.TR12446421 bus1=BMT9054354B.1.2.3,bus2=BMT9054355B.1.2.3,Phases=3,Linecode=CABA06_3_3,Length=0.029217000,Units=km
new line.TR12446422 bus1=BMT9054355B.1.2.3,bus2=BMT171814391.1.2.3,Phases=3,Linecode=CABA06_3_3,Length=0.037027000,Units=km
new line.TR12482758 bus1=BMT171814415.2,bus2=BMT9092557B.2,Phases=1,Linecode=CABA06_3_1,Length=0.029625000,Units=km
new line.TR12482763 bus1=BMT9092557B.2,bus2=BMT1474094B.2,Phases=1,Linecode=CABA06_3_1,Length=0.028453000,Units=km
new line.TR12482764 bus1=BMT1474094B.2,bus2=BMT1474101B.2,Phases=1,Linecode=CABA06_3_1,Length=0.036687000,Units=km
new line.TR12482765 bus1=BMT1474101B.2,bus2=BMT1474108B.2,Phases=1,Linecode=CABA06_3_1,Length=0.034725000,Units=km
new line.TR12482766 bus1=BMT1474108B.2,bus2=BMT1474122B.2,Phases=1,Linecode=CABA06_3_1,Length=0.041788000,Units=km
new line.TR12482767 bus1=BMT1474122B.2,bus2=BMT3360461B.2,Phases=1,Linecode=CABA06_3_1,Length=0.037670000,Units=km
new line.TR12201093 bus1=BMT171813376.3,bus2=BMT171813379.3,Phases=1,Linecode=CAB103_3_1,Length=0.039941000,Units=km
new line.TR12201712 bus1=BMT8803162B.3,bus2=BMT8803166B.3,Phases=1,Linecode=CAB202_3_1,Length=0.152559000,Units=km
new line.TR12201713 bus1=BMT8803166B.3,bus2=BMT171813589.3,Phases=1,Linecode=CAB202_3_1,Length=0.142478000,Units=km
new line.TR12201741 bus1=BMT171813587.3,bus2=BMT8803162B.3,Phases=1,Linecode=CAB202_3_1,Length=0.154368000,Units=km
new line.TR12202247 bus1=BMT171813305.1,bus2=BMT8803729B.1,Phases=1,Linecode=CAB202_3_1,Length=0.119049000,Units=km
new line.TR12202252 bus1=BMT8803729B.1,bus2=BMT8803748B.1,Phases=1,Linecode=CAB202_3_1,Length=0.125367000,Units=km
new line.TR12202253 bus1=BMT8803748B.1,bus2=BMT8803760B.1,Phases=1,Linecode=CAB202_3_1,Length=0.097986000,Units=km
new line.TR12202254 bus1=BMT8803760B.1,bus2=BMT8803764B.1,Phases=1,Linecode=CAB202_3_1,Length=0.125920000,Units=km
new line.TR12202259 bus1=BMT8803764B.1,bus2=BMT8803770B.1,Phases=1,Linecode=CAB202_3_1,Length=0.143640000,Units=km
new line.TR12202261 bus1=BMT8803770B.1,bus2=BMT8803775B.1,Phases=1,Linecode=CAB202_3_1,Length=0.099032000,Units=km
new line.TR12202266 bus1=BMT8803775B.1,bus2=BMT8803781B.1,Phases=1,Linecode=CAB202_3_1,Length=0.268207000,Units=km
new line.TR12202270 bus1=BMT8803781B.1,bus2=BMT8803785B.1,Phases=1,Linecode=CAB202_3_1,Length=0.101901000,Units=km
new line.TR12202281 bus1=BMT8803785B.1,bus2=BMT8803788B.1,Phases=1,Linecode=CAB202_3_1,Length=0.083662000,Units=km
new line.TR12202284 bus1=BMT8803788B.1,bus2=BMT8803791B.1,Phases=1,Linecode=CAB202_3_1,Length=0.080690000,Units=km
new line.TR12202287 bus1=BMT8803791B.1,bus2=BMT8803795B.1,Phases=1,Linecode=CAB202_3_1,Length=0.031635000,Units=km
new line.TR12202291 bus1=BMT8803795B.1,bus2=BMT171813306.1,Phases=1,Linecode=CAB202_3_1,Length=0.335756000,Units=km
new line.TR12241992 bus1=BMT171863151.2,bus2=BMT171863153.2,Phases=1,Linecode=CAB103_3_1,Length=0.022143000,Units=km
new line.TR12241995 bus1=BMT171863162.2,bus2=BMT171863163.2,Phases=1,Linecode=CAB202_3_1,Length=0.012046000,Units=km
new line.TR12241996 bus1=BMT171863162.2,bus2=BMT8843749B.2,Phases=1,Linecode=CAB202_3_1,Length=0.024767000,Units=km
new line.TR12241997 bus1=BMT8843749B.2,bus2=BMT8843754B.2,Phases=1,Linecode=CAB202_3_1,Length=0.054442000,Units=km
new line.TR12241998 bus1=BMT8843754B.2,bus2=BMT171863164.2,Phases=1,Linecode=CAB202_3_1,Length=0.150832000,Units=km
new line.TR12282868 bus1=BMT171814433.3,bus2=BMT8885447B.3,Phases=1,Linecode=CAB202_3_1,Length=0.107042000,Units=km
new line.TR12282881 bus1=BMT8885447B.3,bus2=BMT171814434.3,Phases=1,Linecode=CAB202_3_1,Length=0.073108000,Units=km
new line.TR12284388 bus1=BMT171816214.3,bus2=BMT171816216.3,Phases=1,Linecode=CAB202_3_1,Length=0.016284000,Units=km
new line.TR12284403 bus1=BMT171816213.3,bus2=BMT8887062B.3,Phases=1,Linecode=CAB202_3_1,Length=0.125402000,Units=km
new line.TR12284404 bus1=BMT8887062B.3,bus2=BMT171816214.3,Phases=1,Linecode=CAB202_3_1,Length=0.089966000,Units=km
new line.TR12401083 bus1=BMT5806583B.2,bus2=BMT171867873.2,Phases=1,Linecode=CAB202_3_1,Length=0.030242000,Units=km
new line.TR12401084 bus1=BMT171867873.2,bus2=BMT5806597B.2,Phases=1,Linecode=CAB202_3_1,Length=0.103502000,Units=km
new line.TR12401098 bus1=BMT171867873.2,bus2=BMT171867875.2,Phases=1,Linecode=CAB202_3_1,Length=0.095738000,Units=km
new line.TR12442369 bus1=BMT159764232.3,bus2=BMT1403492B.3,Phases=1,Linecode=CABA06_3_1,Length=0.029622000,Units=km
new line.TR12442370 bus1=BMT1403492B.3,bus2=BMT1403499B.3,Phases=1,Linecode=CABA06_3_1,Length=0.028644000,Units=km
new line.TR12442374 bus1=BMT1403499B.3,bus2=BMT9049340B.3,Phases=1,Linecode=CABA06_3_1,Length=0.033251000,Units=km
new line.TR12442376 bus1=BMT9049340B.3,bus2=BMT159764235.3,Phases=1,Linecode=CABA06_3_1,Length=0.033950000,Units=km
new line.TR12442728 bus1=BMT171815633.1,bus2=BMT9049901B.1,Phases=1,Linecode=CAB202_3_1,Length=0.087005000,Units=km
new line.TR12442774 bus1=BMT9049901B.1,bus2=BMT9049912B.1,Phases=1,Linecode=CAB202_3_1,Length=0.112642000,Units=km
new line.TR12442776 bus1=BMT9049912B.1,bus2=BMT9049915B.1,Phases=1,Linecode=CAB202_3_1,Length=0.112308000,Units=km
new line.TR12442780 bus1=BMT9049915B.1,bus2=BMT9049916B.1,Phases=1,Linecode=CAB202_3_1,Length=0.106076000,Units=km
new line.TR12442784 bus1=BMT9049916B.1,bus2=BMT171815634.1,Phases=1,Linecode=CAB202_3_1,Length=0.123409000,Units=km
new line.TR12477632 bus1=BMT171816118.3,bus2=BMT171816120.3,Phases=1,Linecode=CAB202_3_1,Length=0.120242000,Units=km
new line.TR12477673 bus1=BMT171816318.3,bus2=BMT9087574B.3,Phases=1,Linecode=CAB202_3_1,Length=0.083770000,Units=km
new line.TR12477674 bus1=BMT9087574B.3,bus2=BMT171816320.3,Phases=1,Linecode=CAB202_3_1,Length=0.087395000,Units=km
new line.TR12477950 bus1=BMT171814450.3,bus2=BMT9087814B.3,Phases=1,Linecode=CAB202_3_1,Length=0.131366000,Units=km
new line.TR12477956 bus1=BMT9087814B.3,bus2=BMT9087823B.3,Phases=1,Linecode=CAB202_3_1,Length=0.136062000,Units=km
new line.TR12477958 bus1=BMT9087823B.3,bus2=BMT171814452.3,Phases=1,Linecode=CAB202_3_1,Length=0.060238000,Units=km
new line.TR12478221 bus1=BMT171816301.3,bus2=BMT171816302.3,Phases=1,Linecode=CAB202_3_1,Length=0.078185000,Units=km
new line.TR12478227 bus1=BMT171816301.3,bus2=BMT171816303.3,Phases=1,Linecode=CAB202_3_1,Length=0.078816000,Units=km
new line.TR12478501 bus1=BMT171813275.1.2.3,bus2=BMT171813277.1.2.3,Phases=3,Linecode=CAB103_3_3,Length=0.029011000,Units=km
new line.TR12478502 bus1=BMT171813277.1.2.3,bus2=BMT5997837B.1.2.3,Phases=3,Linecode=CAB202_3_3,Length=0.111114000,Units=km
new line.TR12478504 bus1=BMT171813274.1.2.3,bus2=BMT171813275.1.2.3,Phases=3,Linecode=CAB103_3_3,Length=0.019034000,Units=km
new line.TR12478505 bus1=BMT5997816B.1.2.3,bus2=BMT171813272.1.2.3,Phases=3,Linecode=CAB202_3_3,Length=0.103432000,Units=km
new line.TR12478506 bus1=BMT171813272.1.2.3,bus2=BMT171813273.1.2.3,Phases=3,Linecode=CAB103_3_3,Length=0.030078000,Units=km
new line.TR12515954 bus1=BMT5977761B.1,bus2=BMT171813299.1,Phases=1,Linecode=CAB202_3_1,Length=0.153240000,Units=km
new line.TR12515955 bus1=BMT171813299.1,bus2=BMT171813300.1,Phases=1,Linecode=CAB202_3_1,Length=0.069488000,Units=km
new line.TR12515956 bus1=BMT171813301.1,bus2=BMT9123882B.1,Phases=1,Linecode=CAB202_3_1,Length=0.099073000,Units=km
new line.TR12515959 bus1=BMT9123882B.1,bus2=BMT9123888B.1,Phases=1,Linecode=CAB202_3_1,Length=0.103315000,Units=km
new line.TR12515960 bus1=BMT9123888B.1,bus2=BMT171813302.1,Phases=1,Linecode=CAB202_3_1,Length=0.111774000,Units=km
new line.TR12111666 bus1=BMT171816032.3,bus2=BMT171816034.3,Phases=1,Linecode=CAB103_3_1,Length=0.010054000,Units=km
new line.TR12111678 bus1=BMT171816033.3,bus2=BMT171816035.3,Phases=1,Linecode=CAB103_3_1,Length=0.077549000,Units=km
new line.TR12224470 bus1=BMT171813077.3,bus2=BMT171813079.3,Phases=1,Linecode=CAB202_3_1,Length=0.128766000,Units=km
new line.TR12224471 bus1=BMT5967744B.3,bus2=BMT171813079.3,Phases=1,Linecode=CAB202_3_1,Length=0.107389000,Units=km
new line.TR12224472 bus1=BMT171813079.3,bus2=BMT171813081.3,Phases=1,Linecode=CAB103_3_1,Length=0.020107000,Units=km
new line.TR12224704 bus1=BMT170071839.1,bus2=BMT170071841.1,Phases=1,Linecode=CAB202_3_1,Length=0.063799000,Units=km
new line.TR12224705 bus1=BMT170071841.1,bus2=BMT8825448B.1,Phases=1,Linecode=CAB202_3_1,Length=0.130182000,Units=km
new line.TR12224706 bus1=BMT8825448B.1,bus2=BMT8825449B.1,Phases=1,Linecode=CAB202_3_1,Length=0.131082000,Units=km
new line.TR12224707 bus1=BMT8825449B.1,bus2=BMT170071842.1,Phases=1,Linecode=CAB202_3_1,Length=0.117778000,Units=km
new line.TR12224711 bus1=BMT170071841.1,bus2=BMT170071843.1,Phases=1,Linecode=CAB202_3_1,Length=0.017498000,Units=km
new line.TR12264204 bus1=BMT171813527.2,bus2=BMT171813531.2,Phases=1,Linecode=CAB103_3_1,Length=0.024361000,Units=km
new line.TR12342525 bus1=BMT171814528.3,bus2=BMT171814531.3,Phases=1,Linecode=CAB202_3_1,Length=0.091273000,Units=km
new line.TR12381096 bus1=BMT171815963.1,bus2=BMT8986958B.1,Phases=1,Linecode=CAB203_3_1,Length=0.040868000,Units=km
new line.TR12381129 bus1=BMT8986958B.1,bus2=BMT8986963B.1,Phases=1,Linecode=CAB203_3_1,Length=0.096080000,Units=km
new line.TR12381130 bus1=BMT8986963B.1,bus2=BMT8986964B.1,Phases=1,Linecode=CAB203_3_1,Length=0.075716000,Units=km
new line.TR12381132 bus1=BMT8986964B.1,bus2=BMT8986966B.1,Phases=1,Linecode=CAB203_3_1,Length=0.091738000,Units=km
new line.TR12381133 bus1=BMT8986966B.1,bus2=BMT171815966.1,Phases=1,Linecode=CAB203_3_1,Length=0.061119000,Units=km
new line.TR12487447 bus1=BMT168764424.1,bus2=BMT161795078.1,Phases=1,Linecode=CAB202_3_1,Length=0.014322000,Units=km
new line.TR12487448 bus1=BMT167920686.1,bus2=BMT9097161B.1,Phases=1,Linecode=CAB202_3_1,Length=0.149813000,Units=km
new line.TR12487450 bus1=BMT9097161B.1,bus2=BMT167920687.1,Phases=1,Linecode=CAB202_3_1,Length=0.165894000,Units=km
new line.TR12487454 bus1=BMT167920687.1,bus2=BMT167920688.1,Phases=1,Linecode=CAB202_3_1,Length=0.130419000,Units=km
new line.TR12487455 bus1=BMT167920688.1,bus2=BMT9097164B.1,Phases=1,Linecode=CAB202_3_1,Length=0.078571000,Units=km
new line.TR12487456 bus1=BMT9097164B.1,bus2=BMT167920690.1,Phases=1,Linecode=CAB202_3_1,Length=0.075047000,Units=km
new line.TR12487468 bus1=BMT167920690.1,bus2=BMT167920692.1,Phases=1,Linecode=CAB202_3_1,Length=0.091414000,Units=km
new line.TR12487714 bus1=BMT171814593.2,bus2=BMT171814594.2,Phases=1,Linecode=CAB202_3_1,Length=0.080780000,Units=km
new line.TR12487715 bus1=BMT171814594.2,bus2=BMT171814595.2,Phases=1,Linecode=CAB202_3_1,Length=0.070883000,Units=km
new line.TR12487729 bus1=BMT171814594.2,bus2=BMT171814596.2,Phases=1,Linecode=CAB202_3_1,Length=0.125043000,Units=km
new line.TR12487890 bus1=BMT171813956.1,bus2=BMT171813957.1,Phases=1,Linecode=CAB202_3_1,Length=0.104746000,Units=km
new line.TR12487891 bus1=BMT171813957.1,bus2=BMT171813958.1,Phases=1,Linecode=CAB202_3_1,Length=0.015237000,Units=km
new line.TR12487965 bus1=BMT171813957.1,bus2=BMT9097775B.1,Phases=1,Linecode=CAB202_3_1,Length=0.041355000,Units=km
new line.TR12487973 bus1=BMT9097775B.1,bus2=BMT9097774B.1,Phases=1,Linecode=CAB202_3_1,Length=0.120345000,Units=km
new line.TR12487989 bus1=BMT9097774B.1,bus2=BMT171813959.1,Phases=1,Linecode=CAB202_3_1,Length=0.150677000,Units=km
new line.TR12489187 bus1=BMT171813710.2,bus2=BMT9099347B.2,Phases=1,Linecode=CAB202_3_1,Length=0.113270000,Units=km
...
