2024_89_CemigReconfigurationCases/1_AlimsCemig/COJ09/COJ09Transformadores.dss
new transformer.1003239 Phases=1,Windings=3,Buses=[BMT171814351.3 BBT82481277.1.0 BBT82481277.0.2],Conns=[wye wye wye],kvs=[7.967 0.12 0.12],kvas=[5.000000000 5.000000000 5.000000000],Taps=[1,1.000000000,1.000000000],XHL=1.628000000,XHT=1.628000000,XLT=1.085000000,%loadloss=1.900000000,%noloadloss=0.600000000
new transformer.1018674 Phases=1,Windings=3,Buses=[BMT171813061.3 BBT90823989.1.0 BBT90823989.0.2],Conns=[wye wye wye],kvs=[7.967 0.12 0.12],kvas=[5.000000000 5.000000000 5.000000000],Taps=[1,1.000000000,1.000000000],XHL=1.628000000,XHT=1.628000000,XLT=1.085000000,%loadloss=1.900000000,%noloadloss=0.600000000
new transformer.1036741 Phases=1,Windings=3,Buses=[BMT171813071.2 BBT102656376.1.0 BBT102656376.0.2],Conns=[wye wye wye],kvs=[7.967 0.12 0.12],kvas=[5.000000000 5.000000000 5.000000000],Taps=[1,1.000000000,1.000000000],XHL=1.628000000,XHT=1.628000000,XLT=1.085000000,%loadloss=1.900000000,%noloadloss=0.600000000
new transformer.1036762 Phases=1,Windings=3,Buses=[BMT171814656.1 BBT102668192.1.0 BBT102668192.0.2],Conns=[wye wye wye],kvs=[7.967 0.12 0.12],kvas=[5.000000000 5.000000000 5.000000000],Taps=[1,1.000000000,1.000000000],XHL=1.628000000,XHT=1.628000000,XLT=1.085000000,%loadloss=1.900000000,%noloadloss=0.600000000
new transformer.1036769 Phases=1,Windings=3,Buses=[BMT171814669.1 BBT102671202.1.0 BBT102671202.0.2],Conns=[wye wye wye],kvs=[7.967 0.12 0.12],kvas=[5.000000000 5.000000000 5.000000000],Taps=[1,1.000000000,1.000000000],XHL=1.628000000,XHT=1.628000000,XLT=1.085000000,%loadloss=1.900000000,%noloadloss=0.600000000
new transformer.1084943 Phases=1,Windings=3,Buses=[BMT172843005.2 BBT137724612.1.0 BBT137724612.0.2],Conns=[wye wye wye],kvs=[7.967 0.12 0.12],kvas=[15.000000000 15.000000000 15.000000000],Taps=[1,1.000000000,1.000000000],XHL=2.123000000,XHT=2.123000000,XLT=1.415000000,%loadloss=1.600000000,%noloadloss=0.400000000
new transformer.1099244 Phases=1,Windings=3,Buses=[BMT171813571.3 BBT141234412.1.0 BBT141234412.0.2],Conns=[wye wye wye],kvs=[7.967 0.12 0.12],kvas=[10.000000000 10.000000000 10.000000000],Taps=[1,1.000000000,1.000000000],XHL=1.877000000,XHT=1.877000000,XLT=1.252000000,%loadloss=1.800000000,%noloadloss=0.450000000
new transformer.1395138 Phases=1,Windings=3,Buses=[BMT171813599.2 BBT149241866.1.0 BBT149241866.0.2],Conns=[wye wye wye],kvs=[7.967 0.12 0.12],kvas=[10.000000000 10.000000000 10.000000000],Taps=[1,1.000000000,1.000000000],XHL=1.877000000,XHT=1.877000000,XLT=1.252000000,%loadloss=1.800000000,%noloadloss=0.450000000
new transformer.1395481 Phases=1,Windings=3,Buses=[BMT171812719.2 BBT149310209.1.0 BBT149310209.0.2],Conns=[wye wye wye],kvs=[7.967 0.12 0.12],kvas=[5.000000000 5.000000000 5.000000000],Taps=[1,1.000000000,1.000000000],XHL=1.628000000,XHT=1.628000000,XLT=1.085000000,%loadloss=1.900000000,%noloadloss=0.600000000
new transformer.1400963 Phases=3,Windings=2,Buses=[BMT171813210.1.2.3 BBT150667147.1.2.3.0],Conns=[delta wye],kvs=[13.8 0.22],kvas=[45.000000000 45.000000000],Taps=[1,1.000000000],XHL=3.636000000,%loadloss=1.522000000,%noloadloss=0.377777000
new transformer.1400964 Phases=3,Windings=2,Buses=[BMT171813209.1.2.3 BBT150667165.1.2.3.0],Conns=[delta wye],kvs=[13.8 0.22],kvas=[45.000000000 45.000000000],Taps=[1,1.000000000],XHL=3.636000000,%loadloss=1.522000000,%noloadloss=0.377777000
new transformer.1407303 Phases=1,Windings=3,Buses=[BMT171813081.3 BBT152230701.1.0 BBT152230701.0.2],Conns=[wye wye wye],kvs=[7.967 0.12 0.12],kvas=[10.000000000 10.000000000 10.000000000],Taps=[1,1.000000000,1.000000000],XHL=1.877000000,XHT=1.877000000,XLT=1.252000000,%loadloss=1.800000000,%noloadloss=0.450000000
new transformer.1407335 Phases=1,Windings=3,Buses=[BMT170071842.1 BBT152237545.1.0 BBT152237545.0.2],Conns=[wye wye wye],kvs=[7.967 0.12 0.12],kvas=[10.000000000 10.000000000 10.000000000],Taps=[1,1.000000000,1.000000000],XHL=1.877000000,XHT=1.877000000,XLT=1.252000000,%loadloss=1.800000000,%noloadloss=0.450000000
new transformer.1412801 Phases=1,Windings=3,Buses=[BMT171863069.2 BBT153374931.1.0 BBT153374931.0.2],Conns=[wye wye wye],kvs=[7.967 0.12 0.12],kvas=[10.000000000 10.000000000 10.000000000],Taps=[1,1.000000000,1.000000000],XHL=1.877000000,XHT=1.877000000,XLT=1.252000000,%loadloss=1.800000000,%noloadloss=0.450000000
new transformer.1412802 Phases=1,Windings=3,Buses=[BMT171863070.2 BBT153374956.1.0 BBT153374956.0.2],Conns=[wye wye wye],kvs=[7.967 0.12 0.12],kvas=[10.000000000 10.000000000 10.000000000],Taps=[1,1.000000000,1.000000000],XHL=1.877000000,XHT=1.877000000,XLT=1.252000000,%loadloss=1.800000000,%noloadloss=0.450000000
new transformer.1412804 Phases=1,Windings=3,Buses=[BMT171863072.2 BBT153375723.1.0 BBT153375723.0.2],Conns=[wye wye wye],kvs=[7.967 0.12 0.12],kvas=[15.000000000 15.000000000 15.000000000],Taps=[1,1.000000000,1.000000000],XHL=2.123000000,XHT=2.123000000,XLT=1.415000000,%loadloss=1.600000000,%noloadloss=0.400000000
...